/*--------------------------------*- C++ -*----------------------------------*\
  =========                 |
  \\      /  F ield         | OpenFOAM: The Open Source CFD Toolbox
   \\    /   O peration     | Website:  https://openfoam.org
    \\  /    A nd           | Version:  6
     \\/     M anipulation  |
\*---------------------------------------------------------------------------*/
FoamFile
{
    version     2.0;
    format      ascii;
    class       dictionary;
    object      blockMeshDict;
}
// * * * * * * * * * * * * * * * * * * * * * * * * * * * * * * * * * * * * * //
convertToMeters 1;

vertices
(
(0 0 0)
(0 0.15 0)
(0 0 0.095)
(0 0.15 0.095)
(0 0 0.155)
(0 0.15 0.155)
(0 0 0.3)
(0 0.15 0.3)
(0 -0.04 0.3)
(0 0.19 0.3)
(0 -0.07 0.3)
(0 0.22 0.3)
(0 0 0.33)
(0 0.15 0.33)
(0 -0.04 0.33)
(0 0.19 0.33)
(0 -0.07 0.33)
(0 0.22 0.33)
(0 -0.04 0.4)
(0 0.19 0.4)
(0 -0.07 0.4)
(0 0.22 0.4)
(0 0 0.01)
(0 0.15 0.01)
(0 0 0.03)
(0 0.15 0.03)
(0 0.027 0)
(0 0.047 0)
(0 0.065 0)
(0 0.085 0)
(0 0.102 0)
(0 0.122 0)
(0 0.027 0.01)
(0 0.047 0.01)
(0 0.065 0.01)
(0 0.085 0.01)
(0 0.102 0.01)
(0 0.122 0.01)
(0 0.027 0.03)
(0 0.047 0.03)
(0 0.065 0.03)
(0 0.085 0.03)
(0 0.102 0.03)
(0 0.122 0.03)
(-0.01 0 0)
(-0.01 0.15 0)
(-0.01 0 0.095)
(-0.01 0.15 0.095)
(-0.01 0 0.155)
(-0.01 0.15 0.155)
(-0.01 0 0.3)
(-0.01 0.15 0.3)
(-0.01 -0.04 0.3)
(-0.01 0.19 0.3)
(-0.01 -0.07 0.3)
(-0.01 0.22 0.3)
(-0.01 0 0.33)
(-0.01 0.15 0.33)
(-0.01 -0.04 0.33)
(-0.01 0.19 0.33)
(-0.01 -0.07 0.33)
(-0.01 0.22 0.33)
(-0.01 -0.04 0.4)
(-0.01 0.19 0.4)
(-0.01 -0.07 0.4)
(-0.01 0.22 0.4)
(-0.01 0 0.01)
(-0.01 0.15 0.01)
(-0.01 0 0.03)
(-0.01 0.15 0.03)
(-0.01 0.027 0)
(-0.01 0.047 0)
(-0.01 0.065 0)
(-0.01 0.085 0)
(-0.01 0.102 0)
(-0.01 0.122 0)
(-0.01 0.027 0.01)
(-0.01 0.047 0.01)
(-0.01 0.065 0.01)
(-0.01 0.085 0.01)
(-0.01 0.102 0.01)
(-0.01 0.122 0.01)
(-0.01 0.027 0.03)
(-0.01 0.047 0.03)
(-0.01 0.065 0.03)
(-0.01 0.085 0.03)
(-0.01 0.102 0.03)
(-0.01 0.122 0.03)
(0 0.027 0.095)
(0 0.047 0.095)
(0 0.065 0.095)
(0 0.085 0.095)
(0 0.102 0.095)
(0 0.122 0.095)
(0 0.027 0.155)
(0 0.047 0.155)
(0 0.065 0.155)
(0 0.085 0.155)
(0 0.102 0.155)
(0 0.122 0.155)
(0 0.027 0.3)
(0 0.047 0.3)
(0 0.065 0.3)
(0 0.085 0.3)
(0 0.102 0.3)
(0 0.122 0.3)
(0 0.027 0.33)
(0 0.047 0.33)
(0 0.065 0.33)
(0 0.085 0.33)
(0 0.102 0.33)
(0 0.122 0.33)
(-0.01 0.027 0.095)
(-0.01 0.047 0.095)
(-0.01 0.065 0.095)
(-0.01 0.085 0.095)
(-0.01 0.102 0.095)
(-0.01 0.122 0.095)
(-0.01 0.027 0.155)
(-0.01 0.047 0.155)
(-0.01 0.065 0.155)
(-0.01 0.085 0.155)
(-0.01 0.102 0.155)
(-0.01 0.122 0.155)
(-0.01 0.027 0.3)
(-0.01 0.047 0.3)
(-0.01 0.065 0.3)
(-0.01 0.085 0.3)
(-0.01 0.102 0.3)
(-0.01 0.122 0.3)
(-0.01 0.027 0.33)
(-0.01 0.047 0.33)
(-0.01 0.065 0.33)
(-0.01 0.085 0.33)
(-0.01 0.102 0.33)

);

blocks
(
hex (0 26 33 22 44 70 76 66) (10 10 10) simpleGrading (1 1 1)
hex (26 27 33 32 70 71 77 76) (10 10 10) simpleGrading (1 1 1)
hex (27 28 34 33 71 72 78 77) (10 10 10) simpleGrading (1 1 1)
hex (28 29 35 34 72 73 79 78) (10 10 10) simpleGrading (1 1 1)
hex (29 30 36 35 73 74 80 79) (10 10 10) simpleGrading (1 1 1)
hex (30 31 37 36 74 75 81 80) (10 10 10) simpleGrading (1 1 1)
hex (31 1 23 37 75 45 67 81) (10 10 10) simpleGrading (1 1 1)
hex (22 32 38 24 66 76 82 68) (10 10 10) simpleGrading (1 1 1)
hex (32 33 39 38 76 77 83 82) (10 10 10) simpleGrading (1 1 1)
hex (33 34 40 39 77 78 84 83) (10 10 10) simpleGrading (1 1 1)
hex (34 35 41 40 78 79 85 84) (10 10 10) simpleGrading (1 1 1)
hex (35 36 42 41 79 80 86 85) (10 10 10) simpleGrading (1 1 1)
hex (36 37 43 42 80 81 87 86) (10 10 10) simpleGrading (1 1 1)
hex (37 23 25 43 81 67 69 87) (10 10 10) simpleGrading (1 1 1)
hex (24 38 88 2 68 82 112 46) (10 10 10) simpleGrading (1 1 1)
hex (38 39 89 88 82 83 113 112) (10 10 10) simpleGrading (1 1 1)
hex (39 40 90 89 83 84 114 113) (10 10 10) simpleGrading (1 1 1)
hex (40 41 91 90 84 85 115 114) (10 10 10) simpleGrading (1 1 1)
hex (41 42 92 91 85 86 116 115) (10 10 10) simpleGrading (1 1 1)
hex (42 43 93 92 86 87 117 116) (10 10 10) simpleGrading (1 1 1)
hex (43 25 3 93 87 69 47 117) (10 10 10) simpleGrading (1 1 1)
hex (2 88 94 4 46 112 118 48) (10 10 10) simpleGrading (1 1 1)
hex (88 89 95 94 112 113 119 118) (10 10 10) simpleGrading (1 1 1)
hex (89 90 96 95 113 114 120 119) (10 10 10) simpleGrading (1 1 1)
hex (90 91 97 96 114 115 121 120) (10 10 10) simpleGrading (1 1 1)
hex (91 92 98 97 115 116 122 121) (10 10 10) simpleGrading (1 1 1)
hex (92 93 99 98 116 117 123 122) (10 10 10) simpleGrading (1 1 1)
hex (93 3 5 99 117 47 49 123) (10 10 10) simpleGrading (1 1 1)
hex (4 94 100 6 40 118 124 50) (10 10 10) simpleGrading (1 1 1)
hex (94 95 101 100 118 119 125 124) (10 10 10) simpleGrading (1 1 1)
hex (95 96 102 101 119 120 126 125) (10 10 10) simpleGrading (1 1 1)
hex (96 97 103 102 120 121 127 126) (10 10 10) simpleGrading (1 1 1)
hex (97 98 104 103 121 122 128 127) (10 10 10) simpleGrading (1 1 1)
hex (98 99 105 104 122 123 129 128) (10 10 10) simpleGrading (1 1 1)
hex (99 5 7 105 123 49 51 129) (10 10 10) simpleGrading (1 1 1)
hex (16 14 18 20 60 58 62 64) (10 10 10) simpleGrading (1 1 1)
hex (10 8 14 16 54 52 58 60) (10 10 10) simpleGrading (1 1 1)
hex (8 6 12 14 52 50 56 58) (10 10 10) simpleGrading (1 1 1)
hex (6 100 106 12 50 124 130 56) (10 10 10) simpleGrading (1 1 1)
hex (100 101 107 106 124 125 131 130) (10 10 10) simpleGrading (1 1 1)
hex (101 102 108 107 125 126 132 131) (10 10 10) simpleGrading (1 1 1)
hex (102 103 109 108 126 127 133 132) (10 10 10) simpleGrading (1 1 1)
hex (103 104 110 109 127 128 134 133) (10 10 10) simpleGrading (1 1 1)
hex (104 105 111 110 128 129 135 134) (10 10 10) simpleGrading (1 1 1)
hex (105 7 13 111 129 51 57 135) (10 10 10) simpleGrading (1 1 1)
hex (7 9 15 13 51 53 59 57) (10 10 10) simpleGrading (1 1 1)
hex (9 11 17 15 53 55 61 59) (10 10 10) simpleGrading (1 1 1)
hex (15 17 21 19 59 61 65 63) (10 10 10) simpleGrading (1 1 1)
);


edges
(
);

boundary
(
);

mergePatchPairs
(
);

// ************************************************************************* //






















































