/*--------------------------------*- C++ -*----------------------------------*\
  =========                 |
  \\      /  F ield         | OpenFOAM: The Open Source CFD Toolbox
   \\    /   O peration     | Website:  https://openfoam.org
    \\  /    A nd           | Version:  6
     \\/     M anipulation  |
\*---------------------------------------------------------------------------*/
FoamFile
{
    version     2.0;
    format      ascii;
    class       dictionary;
    object      blockMeshDict;
}
// * * * * * * * * * * * * * * * * * * * * * * * * * * * * * * * * * * * * * //
convertToMeters 1;

vertices
(
(0 0 0)
(0 0.1 0)
(0 0 0.095)
(0 0.1 0.095)
(0 0.1 0.105)
(0 0 0.105)
(0 0 0.15)
(0 0.1 0.15)
(0 0.17 0.15)
(0 -0.07 0.15)
(0 -0.07 0.25)
(0 -0.04 0.25)
(0 0.14 0.25)
(0 0.17 0.25)
(0 -0.04 0.18)
(0 0.14 0.18)
(0 0.025 0.02)
(0 0.075 0.02)
(0 0.075 0.04)
(0 0.025 0.04)
(0 0 0.18)
(0 0.1 0.18)
(-0.01 0 0)
(-0.01 0.1 0)
(-0.01 0 0.095)
(-0.01 0.1 0.095)
(-0.01 0.1 0.105)
(-0.01 0 0.105)
(-0.01 0 0.15)
(-0.01 0.1 0.15)
(-0.01 0.17 0.15)
(-0.01 -0.07 0.15)
(-0.01 -0.07 0.25)
(-0.01 -0.04 0.25)
(-0.01 0.14 0.25)
(-0.01 0.17 0.25)
(-0.01 -0.04 0.18)
(-0.01 0.14 0.18)
(-0.01 0.025 0.02)
(-0.01 0.075 0.02)
(-0.01 0.075 0.04)
(-0.01 0.025 0.04)
(-0.01 0 0.18)
(-0.01 0.1 0.18)
(0 -0.04 0.15)
(-0.01 -0.04 0.15)
(0 0.14 0.15)
(-0.01 0.14 0.15)
(0 -0.07 0.18)
(-0.01 -0.07 0.18)
(0 0.17 0.18)
(-0.01 0.17 0.18)
(0 0.011 0)
(0 0.022 0)
(0 0.033 0)
(0 0.044 0)
(0 0.055 0)
(0 0.066 0)
(0 0.077 0)
(0 0.088 0)
(-0.01 0.011 0)
(-0.01 0.022 0)
(-0.01 0.033 0)
(-0.01 0.044 0)
(-0.01 0.055 0)
(-0.01 0.066 0)
(-0.01 0.077 0)
(-0.01 0.088 0)
(0 0.011 -0.01)
(0 0.022 -0.01)
(0 0.033 -0.01)
(0 0.044 -0.01)
(0 0.055 -0.01)
(0 0.066 -0.01)
(0 0.077 -0.01)
(0 0.088 -0.01)
(-0.01 0.011 -0.01)
(-0.01 0.022 -0.01)
(-0.01 0.033 -0.01)
(-0.01 0.044 -0.01)
(-0.01 0.055 -0.01)
(-0.01 0.066 -0.01)
(-0.01 0.077 -0.01)
(-0.01 0.088 -0.01)
(0 0 -0.005)
(-0.01 0 -0.005)
(0 0.1 -0.005)
(-0.01 0.1 -0.005)
(0 0.011 -0.005)
(-0.01 0.011 -0.005)
(0 0.088 -0.005)
(-0.01 0.088 -0.005)
(0 0.022 -0.005)
(0 0.033 -0.005)
(-0.01 0.033 -0.005)
(-0.01 0.022 -0.005)
(0 0.044 -0.005)
(0 0.055 -0.005)
(-0.01 0.055 -0.005)
(-0.01 0.044 -0.005)
(0 0.066 -0.005)
(0 0.077 -0.005)
(-0.01 0.077 -0.005)
(-0.01 0.066 -0.005)
(0 0.023 0.02)
(0 0.043 0.02)
(-0.01 0.043 0.02)
(-0.01 0.023 0.02)
(0 0.023 0.04)
(0 0.043 0.04)
(-0.01 0.043 0.04)
(-0.01 0.023 0.04)
(0 0.056 0.02)
(0 0.076 0.02)
(-0.01 0.076 0.02)
(-0.01 0.056 0.02)
(0 0.056 0.04)
(0 0.076 0.04)
(-0.01 0.076 0.04)
(-0.01 0.056 0.04)
(0 0.09 0.02)
(0 0.11 0.02)
(-0.01 0.11 0.02)
(-0.01 0.09 0.02)
(0 0.09 0.04)
(0 0.11 0.04)
(-0.01 0.11 0.04)
(-0.01 0.09 0.04)

);

blocks
(
//hex (16 17 39 38 19 18 40 41) (5 5 5) simpleGrading (1 1 1) fuel gone
hex (0 1 23 22 2 3 25 24) (5 5 5) simpleGrading (1 1 1)
hex (5 4 26 27 6 7 29 28) (5 5 5) simpleGrading (1 1 1)
hex (2 3 25 24 5 4 26 27) (5 5 5) simpleGrading (1 1 1)
hex (6 7 29 28 20 21 43 42) (5 5 5) simpleGrading (1 1 1)
hex (7 46 47 29 21 15 37 43) (5 5 5) simpleGrading (1 1 1)
hex (44 6 28 45 14 20 42 36) (5 5 5) simpleGrading (1 1 1)
hex (9 44 45 31 48 14 36 49) (5 5 5) simpleGrading (1 1 1)
hex (48 14 36 49 10 11 33 32) (5 5 5) simpleGrading (1 1 1)
hex (46 8 30 47 15 50 51 37) (5 5 5) simpleGrading (1 1 1)
hex (15 50 51 37 12 13 35 34) (5 5 5) simpleGrading (1 1 1)
hex (68 69 77 76 52 53 61 60) (5 5 5) simpleGrading (1 1 1)
hex (70 71 79 78 54 55 63 62) (5 5 5) simpleGrading (1 1 1)
hex (72 73 81 80 56 57 65 64) (5 5 5) simpleGrading (1 1 1)
hex (74 75 83 82 58 59 67 66) (5 5 5) simpleGrading (1 1 1)
hex (84 88 89 85 0 52 60 22) (5 5 5) simpleGrading (1 1 1)
hex (90 86 87 91 59 1 23 67) (5 5 5) simpleGrading (1 1 1)
hex (92 93 94 95 53 54 62 61) (5 5 5) simpleGrading (1 1 1)
hex (96 97 98 99 55 56 64 63) (5 5 5) simpleGrading (1 1 1)
hex (100 101 102 103 57 58 66 65) (5 5 5) simpleGrading (1 1 1)
hex (104 105 106 107 108 109 110 111) (5 5 5) simpleGrading (1 1 1)
hex (112 113 114 115 116 117 118 119) (5 5 5) simpleGrading (1 1 1)
hex (120 121 122 123 124 125 126 127) (5 5 5) simpleGrading (1 1 1)


);

edges
(
);

boundary
(
fuel
{
type patch;
faces
(
// (19 18 40 41) Previous fuel
(108 109 110 111)
(116 117 118 119)
(124 125 126 127)
);
}
primary_air
{
type patch;
faces
(
(68 69 77 76)
(70 71 79 78)
(72 73 81 80)
(74 75 83 82)
);
}
Secondary_air_RHS
{
type patch;
faces
(
(3 25 26 4)
);
}
Secondary_air_LHS
{
type patch;
faces
(
(2 24 27 5)
);
}
outlet
{
type patch;
faces
(
(12 13 35 34)
(10 11 33 32)
);
}
stove_body
{
type patch;
faces
(
(22 0 2 24)
(1 23 25 3)
(5 27 28 6)
(4 26 29 7)
(20 21 43 42)
(14 20 42 36)
(44 6 28 45)
(21 15 37 43)
(7 46 47 29)
(14 36 33 11)
(48 49 32 10)
(9 44 45 31)
(15 37 34 12)
(50 51 35 13)
(46 8 30 47)
(8 30 51 50)
(9 31 49 48)
(68 76 60 52)
(69 77 61 53)
(70 78 62 54)
(71 79 63 55)
(72 80 64 56)
(73 81 65 57)
(74 82 66 58)
(75 83 67 59)
//(16 17 39 38) Omitted
//(38 16 19 41) Ommited
//(17 39 40 18) Omitted
(0 52 60 22)
(1 23 67 59)
(84 85 22 0)
(88 89 60 52)
(90 91 67 59)
(86 87 23 1)
(84 88 89 85)
(90 86 87 91)
(92 95 61 53)
(93 94 62 54)
(92 93 94 95)
(53 54 62 61)
(96 99 63 55)
(97 98 64 56)
(96 97 98 99)
(55 56 64 63)
(100 103 65 57)
(101 102 66 58)
(100 101 102 103)
(57 58 66 65)
// Added new fuel bottom and sides
(104 105 106 107)
(105 106 110 109)
(104 107 111 108)
(112 113 114 115)
(113 114 118 117)
(112 115 119 116)
(120 121 122 123)
(121 122 126 125)
(120 123 127 124)
);
}

frontAndBack
{
type empty;
faces
(
//(16 17 18 19)
//(38 39 40 41)
(0 1 3 2)
(22 23 25 24)
(2 3 4 5)
(24 25 26 27)
(5 4 7 6)
(27 28 29 26)
(6 7 21 20)
(28 29 43 42)
(44 6 20 14)
(45 28 42 36)
(29 47 37 43)
(7 46 15 21)
(9 44 14 48)
(48 14 11 10)
(31 45 36 49)
(49 36 33 32)
(46 8 50 15)
(15 50 13 12)
(47 30 51 37)
(37 51 35 34)
(52 53 69 68)
(60 61 77 76)
(54 55 71 70)
(62 63 79 78)
(56 57 73 72)
(64 65 81 80)
(58 59 75 74)
(66 67 83 82)
(90 86 1 59)
(91 87 23 67)
(84 88 52 0)
(85 89 60 22)
(92 93 54 53)
(95 94 62 61)
(96 97 56 55)
(99 98 64 63)
(100 101 58 57)
(103 102 66 65)
// Added new fuel front and backs:
(104 105 109 108)
(107 106 110 111)
(112 113 116 117)
(115 114 118 119)
(120 121 125 124)
(123 122 126 127)
);
}
);

mergePatchPairs
(
);
// ************************************************************************* //