/*--------------------------------*- C++ -*----------------------------------*\
  =========                 |
  \\      /  F ield         | OpenFOAM: The Open Source CFD Toolbox
   \\    /   O peration     | Website:  https://openfoam.org
    \\  /    A nd           | Version:  6
     \\/     M anipulation  |
\*---------------------------------------------------------------------------*/
FoamFile
{
    version     2.0;
    format      ascii;
    class       volScalarField;
    location    "0";
    object      N2;
}
// * * * * * * * * * * * * * * * * * * * * * * * * * * * * * * * * * * * * * //

dimensions      [0 0 0 0 0 0 0];

internalField   uniform 0.77; // initially 77% by vol

boundaryField
{
    fuel
    {
        type            fixedValue;
        value           uniform 0.0;
    }
    primary_air
    {
        type            fixedValue;
        value           uniform 0.77;
    }
    secondary_air_RHS
    {
        type            fixedValue;
        value           uniform 0.77;
    }
    secondary_air_LHS
    {
        type            fixedValue;
        value           uniform 0.77;
    }
    outlet
    {
        type            inletOutlet;
        inletValue      uniform 0.77;
        value           uniform 0.77;

    }
    frontAndBack
    {
        type            empty;
    }
}


// ************************************************************************* //
