/*--------------------------------*- C++ -*----------------------------------*\
  =========                 |
  \\      /  F ield         | OpenFOAM: The Open Source CFD Toolbox
   \\    /   O peration     | Website:  https://openfoam.org
    \\  /    A nd           | Version:  6
     \\/     M anipulation  |
\*---------------------------------------------------------------------------*/
FoamFile
{
    version     2.0;
    format      ascii;
    class       dictionary;
    location    "system";
    object      controlDict;
}
// * * * * * * * * * * * * * * * * * * * * * * * * * * * * * * * * * * * * * //
application reactingFoam;

startFrom startTime;

startTime 0;

stopAt endTime;

endTime 1000;

deltaT 0.01;

writeControl adjustableRunTime;

writeInterval 0.1;

purgeWrite 0;

writeFormat ascii;

writePrecision 6;

writeCompression off;

timeFormat general;

timePrecision 6;

runTimeModifiable true;

adjustTimeStep yes;

maxCo 0.4;

functions
{
probes
{
functionObjectLibs ( "libsampling.so" );

type probes;

name probes;

outputControl outputTime;
outputInterval 1;

fields
(
T
);

probeLocations
(
(0 -0.04 0.4)
(0 -0.04 0.33)
(0 0 0.33)
(0 0.15 0.33)
(0 0.19 0.33)
(0 0.19 0.4)
);