/*--------------------------------*- C++ -*----------------------------------*\
  =========                 |
  \\      /  F ield         | OpenFOAM: The Open Source CFD Toolbox
   \\    /   O peration     | Website:  https://openfoam.org
    \\  /    A nd           | Version:  6
     \\/     M anipulation  |
\*---------------------------------------------------------------------------*/
FoamFile
{
    version     2.0;
    format      ascii;
    class       dictionary;
    object      blockMeshDict;
}
// * * * * * * * * * * * * * * * * * * * * * * * * * * * * * * * * * * * * * //
convertToMeters 1;

vertices
(
(0 0 0)
(0 0.15 0)
(0 0 0.095)
(0 0.15 0.095)
(0 0 0.155)
(0 0.15 0.155)
(0 0 0.3)
(0 0.15 0.3)
(0 -0.04 0.3)
(0 0.19 0.3)
(0 -0.07 0.3)
(0 0.22 0.3)
(0 0 0.33)
(0 0.15 0.33)
(0 -0.04 0.33)
(0 0.19 0.33)
(0 -0.07 0.33)
(0 0.22 0.33)
(0 -0.04 0.4)
(0 0.19 0.4)
(0 -0.07 0.4)
(0 0.22 0.4)
(0 0 0.01)
(0 0.15 0.01)
(0 0 0.03)
(0 0.15 0.03)
(0 0.027 0)
(0 0.047 0)
(0 0.065 0)
(0 0.085 0)
(0 0.102 0)
(0 0.122 0)
(0 0.027 0.01)
(0 0.047 0.01)
(0 0.065 0.01)
(0 0.085 0.01)
(0 0.102 0.01)
(0 0.122 0.01)
(0 0.027 0.03)
(0 0.047 0.03)
(0 0.065 0.03)
(0 0.085 0.03)
(0 0.102 0.03)
(0 0.122 0.03)
(0.01 0 0)
(0.01 0.15 0)
(0.01 0 0.095)
(0.01 0.15 0.095)
(0.01 0 0.155)
(0.01 0.15 0.155)
(0.01 0 0.3)
(0.01 0.15 0.3)
(0.01 -0.04 0.3)
(0.01 0.19 0.3)
(0.01 -0.07 0.3)
(0.01 0.22 0.3)
(0.01 0 0.33)
(0.01 0.15 0.33)
(0.01 -0.04 0.33)
(0.01 0.19 0.33)
(0.01 -0.07 0.33)
(0.01 0.22 0.33)
(0.01 -0.04 0.4)
(0.01 0.19 0.4)
(0.01 -0.07 0.4)
(0.01 0.22 0.4)
(0.01 0 0.01)
(0.01 0.15 0.01)
(0.01 0 0.03)
(0.01 0.15 0.03)
(-0.01 0.027 0)
(-0.01 0.047 0)
(-0.01 0.065 0)
(-0.01 0.085 0)
(-0.01 0.102 0)
(-0.01 0.122 0)
(0.01 0.027 0.01)
(0.01 0.047 0.01)
(0.01 0.065 0.01)
(0.01 0.085 0.01)
(0.01 0.102 0.01)
(0.01 0.122 0.01)
(0.01 0.027 0.03)
(0.01 0.047 0.03)
(0.01 0.065 0.03)
(0.01 0.085 0.03)
(0.01 0.102 0.03)
(0.01 0.122 0.03)
(0 0.027 0.095)
(0 0.047 0.095)
(0 0.065 0.095)
(0 0.085 0.095)
(0 0.102 0.095)
(0 0.122 0.095)
(0 0.027 0.155)
(0 0.047 0.155)
(0 0.065 0.155)
(0 0.085 0.155)
(0 0.102 0.155)
(0 0.122 0.155)
(0 0.027 0.3)
(0 0.047 0.3)
(0 0.065 0.3)
(0 0.085 0.3)
(0 0.102 0.3)
(0 0.122 0.3)
(0 0.027 0.33)
(0 0.047 0.33)
(0 0.065 0.33)
(0 0.085 0.33)
(0 0.102 0.33)
(0 0.122 0.33)
(-0.01 0.027 0.095)
(-0.01 0.047 0.095)
(-0.01 0.065 0.095)
(-0.01 0.085 0.095)
(-0.01 0.102 0.095)
(-0.01 0.122 0.095)
(-0.01 0.027 0.155)
(-0.01 0.047 0.155)
(-0.01 0.065 0.155)
(-0.01 0.085 0.155)
(-0.01 0.102 0.155)
(-0.01 0.122 0.155)
(-0.01 0.027 0.3)
(-0.01 0.047 0.3)
(-0.01 0.065 0.3)
(-0.01 0.085 0.3)
(-0.01 0.102 0.3)
(-0.01 0.122 0.3)
(-0.01 0.027 0.33)
(-0.01 0.047 0.33)
(-0.01 0.065 0.33)
(-0.01 0.085 0.33)
(-0.01 0.102 0.33)
(-0.01 0.122 0.33)
(0 0.027 0.03)
(0.01 0.027 0.03)
(0 0.047 0.03)
(0.01 0.047 0.03)
(0 0.027 0.01)
(0.01 0.027 0.01)
(0 0.047 0.01)
(0.01 0.047 0.01)
(0 0.065 0.03)
(0.01 0.065 0.03)
(0 0.085 0.03)
(0.01 0.085 0.03)
(0 0.065 0.01)
(0.01 0.065 0.01)
(0 0.085 0.01)
(0.01 0.085 0.01)
(0 0.102 0.03)
(0.01 0.102 0.03)
(0 0.122 0.03)
(0.01 0.122 0.03)
(0 0.102 0.01)
(0.01 0.102 0.01)
(0 0.122 0.01)
(0.01 0.122 0.01)

);