/*--------------------------------*- C++ -*----------------------------------*\
  =========                 |
  \\      /  F ield         | OpenFOAM: The Open Source CFD Toolbox
   \\    /   O peration     | Website:  https://openfoam.org
    \\  /    A nd           | Version:  6
     \\/     M anipulation  |
\*---------------------------------------------------------------------------*/
FoamFile
{
    version     2.0;
    format      ascii;
    class       volScalarField;
    location    "0";
    object      Ydefault;
}
// * * * * * * * * * * * * * * * * * * * * * * * * * * * * * * * * * * * * * //

dimensions      [0 0 0 0 0 0 0];

internalField   uniform 0.0;

boundaryField
{
    top_fuel
    {
        type            fixedValue;
        value           uniform 0.0;
    }
	L_fuel
    {
        type            fixedValue;
        value           uniform 0.0;
    }
	R_fuel
    {
        type            fixedValue;
        value           uniform 0.0;
    }
	bottom_fuel
    {
        type            fixedValue;
        value           uniform 0.0;
    }
    primary_inlets
    {
        type            fixedValue;
        value           uniform 0.0;
    }
    outlet_LHS
    {
        type            inletOutlet;
        inletValue      uniform 0.0;
        value           uniform 0.0;

    }
	outlet_RHS
    {
        type            inletOutlet;
        inletValue      uniform 0.0;
        value           uniform 0.0;
    }
	secondary_air_LHS
    {
        type            fixedValue;
        value           uniform 0.0;
    }
	secondary_air_RHS
    {
        type            fixedValue;
        value           uniform 0.0;
    }
	stove_body
    {
        type            fixedValue;
        value           uniform 0.0;
    }
    frontAndBack
    {
        type            empty;
    }
}


// ************************************************************************* //
