/*--------------------------------*- C++ -*----------------------------------*\
  =========                 |
  \\      /  F ield         | OpenFOAM: The Open Source CFD Toolbox
   \\    /   O peration     | Website:  https://openfoam.org
    \\  /    A nd           | Version:  6
     \\/     M anipulation  |
\*---------------------------------------------------------------------------*/
FoamFile
{
    version     2.0;
    format      ascii;
    class       dictionary;
    object      blockMeshDict;
}
// * * * * * * * * * * * * * * * * * * * * * * * * * * * * * * * * * * * * * //

/* convertToMeters 0.1; */


vertices
(
    (0 0 0) /*pt#x-z-y*/ 
    (0.1 0 0)
    (0 0.15 0)
    (0.1 0.15 0)
    (0.1 0.16 0)
    (0 0.16 0)
    (0 0.3 0)
    (0.1 0.3 0)
    (0.17 0.3 0)
    (-0.07 0.3 0)
    (-0.07 0.5 0)
    (-0.04 0.5 0)
    (0.14 0.5 0)
    (0.17 0.5 0)
    (-0.04 0.33 0)
    (0.14 0.33 0)

/*Fuel Zone:*/


);

blocks
(
    hex (0 1 2 3 0 1 2 3) (20 20 1) simpleGrading (1 1 1) // block 0
    hex (2 3 4 5 2 3 4 5) (20 20 1) simpleGrading (1 1 1) // block 1
    hex (5 4 7 6 5 4 7 6) (20 20 1) simpleGrading (1 1 1) // block 2
    hex (9 14 15 8 7 6 9 14) (20 20 1) simpleGrading (1 1 1) // block 3
    hex (9 14 11 10 9 14 11 10) (20 20 1) simpleGrading (1 1 1) // block 4
    hex (15 8 13 12 15 8 13 12) (20 20 1) simpleGrading (1 1 1) // block 5
);

edges
(
);

boundary
(
    movingWall
    {
        type wall;
        faces
        (
            (3 7 6 2)
        );
    }
    fixedWalls
    {
        type wall;
        faces
        (
            (0 4 7 3)
            (2 6 5 1)
            (1 5 4 0)
        );
    }
    frontAndBack
    {
        type empty;
        faces
        (
            (0 3 2 1)
            (4 5 6 7)
        );
    }
);

mergePatchPairs
(
);

// ************************************************************************* //
