/*--------------------------------*- C++ -*----------------------------------*\
  =========                 |
  \\      /  F ield         | OpenFOAM: The Open Source CFD Toolbox
   \\    /   O peration     | Website:  https://openfoam.org
    \\  /    A nd           | Version:  6
     \\/     M anipulation  |
\*---------------------------------------------------------------------------*/
FoamFile
{
    version     2.0;
    format      ascii;
    class       dictionary;
    object      blockMeshDict;
}
// * * * * * * * * * * * * * * * * * * * * * * * * * * * * * * * * * * * * * //
convertToMeters 1;

vertices
(
(0 0 0)
(0 0.1 0)
(0 0 0.095)
(0 0.1 0.095)
(0 0.1 0.105)
(0 0 0.105)
(0 0 0.15)
(0 0.1 0.15)
(0 0.17 0.15)
(0 -0.07 0.15)
(0 -0.07 0.25)
(0 -0.04 0.25)
(0 0.14 0.25)
(0 0.17 0.25)
(0 -0.04 0.18)
(0 0.14 0.18)
(0 0.025 0.02)
(0 0.075 0.02)
(0 0.075 0.04)
(0 0.025 0.04)
(0 0 0.18)
(0 0.1 0.18)
(-0.01 0 0)
(-0.01 0.1 0)
(-0.01 0 0.095)
(-0.01 0.1 0.095)
(-0.01 0.1 0.105)
(-0.01 0 0.105)
(-0.01 0 0.15)
(-0.01 0.1 0.15)
(-0.01 0.17 0.15)
(-0.01 -0.07 0.15)
(-0.01 -0.07 0.25)
(-0.01 -0.04 0.25)
(-0.01 0.14 0.25)
(-0.01 0.17 0.25)
(-0.01 -0.04 0.18)
(-0.01 0.14 0.18)
(-0.01 0.025 0.02)
(-0.01 0.075 0.02)
(-0.01 0.075 0.04)
(-0.01 0.025 0.04)
(-0.01 0 0.18)
(-0.01 0.1 0.18)
(0 -0.04 0.15)
(-0.01 -0.04 0.15)
(0 0.14 0.15)
(-0.01 0.14 0.15)
(0 -0.07 0.18)
(-0.01 -0.07 0.18)
(0 0.17 0.18)
(-0.01 0.17 0.18)
(0 0.011 0)
(0 0.022 0)
(0 0.033 0)
(0 0.044 0)
(0 0.055 0)
(0 0.066 0)
(0 0.077 0)
(0 0.088 0)
(-0.01 0.011 0)
(-0.01 0.022 0)
(-0.01 0.033 0)
(-0.01 0.044 0)
(-0.01 0.055 0)
(-0.01 0.066 0)
(-0.01 0.077 0)
(-0.01 0.088 0)
(0 0.011 -0.01)
(0 0.022 -0.01)
(0 0.033 -0.01)
(0 0.044 -0.01)
(0 0.055 -0.01)
(0 0.066 -0.01)
(0 0.077 -0.01)
(0 0.088 -0.01)
(-0.01 0.011 -0.01)
(-0.01 0.022 -0.01)
(-0.01 0.033 -0.01)
(-0.01 0.044 -0.01)
(-0.01 0.055 -0.01)
(-0.01 0.066 -0.01)
(-0.01 0.077 -0.01)
(-0.01 0.088 -0.01)

);

blocks
(
hex (16 17 39 38 19 18 40 41) (10 10 10) simpleGrading (1 1 1)
hex (0 1 23 22 2 3 25 24) (10 10 10) simpleGrading (1 1 1)
hex (5 4 26 27 6 7 29 28) (10 10 10) simpleGrading (1 1 1)
hex (2 3 25 24 5 4 26 27) (10 10 10) simpleGrading (1 1 1)
hex (6 7 29 28 20 21 43 42) (10 10 10) simpleGrading (1 1 1)
hex (7 46 47 29 21 15 37 43) (10 10 10) simpleGrading (1 1 1)
hex (44 6 28 45 14 20 42 36) (10 10 10) simpleGrading (1 1 1)
hex (9 44 45 31 48 14 36 49) (10 10 10) simpleGrading (1 1 1)
hex (48 14 36 49 10 11 33 32) (10 10 10) simpleGrading (1 1 1)
hex (46 8 30 47 15 50 51 37) (10 10 10) simpleGrading (1 1 1)
hex (15 50 51 37 12 13 35 34) (10 10 10) simpleGrading (1 1 1)
hex (68 69 77 76 52 53 61 60) (10 10 10) simpleGrading (1 1 1)
hex (70 71 79 78 54 55 63 62) (10 10 10) simpleGrading (1 1 1)
hex (72 73 81 80 56 57 65 64) (10 10 10) simpleGrading (1 1 1)
hex (74 75 83 82 58 59 67 66) (10 10 10) simpleGrading (1 1 1)
);

edges
(
);

boundary
(
fuel
{
type patch;
faces
(
(19 18 40 41)
(16 17 39 38)
(38 16 19 41)
(17 39 40 18)
);
}
primary_air
{
type patch;
faces
(
(68 69 77 76)
(70 71 79 78)
(72 73 81 80)
(74 75 83 82)
);
}
Secondary_air_RHS
{
type patch;
faces
(
(3 25 26 4)
);
}
Secondary_air_LHS
{
type patch;
faces
(
(2 24 27 5)
);
}
outlet
{
type patch;
faces
(
(12 13 35 34)
(10 11 33 32)
);
}
stove_body
{
type patch;
faces
(
(22 0 2 24)
(1 23 25 3)
(5 27 28 6)
(4 26 29 7)
(20 21 43 42)
(14 20 42 36)
(44 6 28 45)
(21 15 37 43)
(7 46 47 29)
(14 36 33 11)
(48 49 32 10)
(9 44 45 31)
(15 37 34 12)
(50 51 35 13)
(46 8 30 47)
(8 30 51 50)
(9 31 49 48)
);
}

frontAndBack
{
type empty;
faces
(
(16 17 18 19)
(38 39 40 41)
(0 1 3 2)
(22 23 25 24)
(2 3 4 5)
(24 25 26 27)
(5 4 7 6)
(27 28 29 26)
(6 7 21 20)
(28 29 43 42)
(44 6 20 14)
(45 28 42 36)
(29 47 37 43)
(7 46 15 21)
(9 44 14 48)
(48 14 11 10)
(31 45 36 49)
(49 36 33 32)
(46 8 50 15)
(15 50 13 12)
(47 30 51 37)
(37 51 35 34)
(52 53 69 68)
(60 61 77 76)
(54 55 71 70)
(62 63 79 78)
(56 57 73 72)
(64 65 81 80)
(58 59 75 74)
(66 67 83 82)
);
}
);

mergePatchPairs
(
);
// ************************************************************************* //