/*--------------------------------*- C++ -*----------------------------------*\
  =========                 |
  \\      /  F ield         | OpenFOAM: The Open Source CFD Toolbox
   \\    /   O peration     | Website:  https://openfoam.org
    \\  /    A nd           | Version:  6
     \\/     M anipulation  |
\*---------------------------------------------------------------------------*/
FoamFile
{
    version     2.0;
    format      ascii;
    class       polyBoundaryMesh;
    location    "constant/polyMesh";
    object      boundary;
}
// * * * * * * * * * * * * * * * * * * * * * * * * * * * * * * * * * * * * * //

8
(
    fuel
    {
        type            patch;
        nFaces          1600;
        startFace       207200;
    }
    primary_air
    {
        type            patch;
        nFaces          400;
        startFace       208800;
    }
    Secondary_air_RHS
    {
        type            patch;
        nFaces          400;
        startFace       209200;
    }
    Secondary_air_LHS
    {
        type            patch;
        nFaces          400;
        startFace       209600;
    }
    outlet
    {
        type            patch;
        nFaces          800;
        startFace       210000;
    }
    stove_body
    {
        type            patch;
        nFaces          3600;
        startFace       210800;
    }
    frontAndBack
    {
        type            empty;
        inGroups        1(empty);
        nFaces          6800;
        startFace       214400;
    }
    defaultFaces
    {
        type            empty;
        inGroups        1(empty);
        nFaces          3600;
        startFace       221200;
    }
)

// ************************************************************************* //
